2
-1.1312133054 5.42e-03
           H          0.000000000000     0.000000000000    -0.370000000000     1.007825032070
           H          0.000000000000     0.000000000000     0.370000000000     1.007825032070
2
-1.1312499043 *
           H          0.000000000000     0.000000000000    -0.370000000000     1.007825032070
           H          0.000000000000     0.000000000000     0.370000000000     1.007825032070
2

           H          0.000000000000     0.000000000000    -0.366333814007     1.007825032070
           H          0.000000000000     0.000000000000     0.366333814007     1.007825032070
2

           H          0.000000000000     0.000000000000    -0.366333814007     1.007825032070
           H          0.000000000000     0.000000000000     0.366333814007     1.007825032070
