3
-75.9684297964 2.92e-02
           O          0.000000000000     0.000000000000    -0.000093757573    15.994914619560
           H          0.000000000000    -0.959999634459     0.000744000362     1.007825032070
           H          0.000000000000     0.959999634459     0.000744000362     1.007825032070
3
-75.9712537499 3.59e-03
           O          0.000000000000     0.000000000000    -0.000093757573    15.994914619560
           H          0.000000000000    -0.959999634459     0.000744000362     1.007825032070
           H          0.000000000000     0.959999634459     0.000744000362     1.007825032070
3
-75.9712918705 7.00e-04
           O          0.000000000000     0.000000000000    -0.000183162338    15.994914619560
           H          0.000000000000    -0.921031720787     0.001453459614     1.007825032070
           H          0.000000000000     0.921031720787     0.001453459614     1.007825032070
3
-75.9713055065 1.17e-03
           O          0.000000000000     0.000000000000    -0.000183162338    15.994914619560
           H          0.000000000000    -0.921031720787     0.001453459614     1.007825032070
           H          0.000000000000     0.921031720787     0.001453459614     1.007825032070
3
-75.9321008285 1.01e-01
           O          0.000000000000     0.000000000000    -0.000349207290    15.994914619560
           H          0.000000000000    -0.925274422215     0.002771086551     1.007825032070
           H          0.000000000000     0.925274422215     0.002771086551     1.007825032070
3
-75.9804921227 7.41e-02
           O          0.000000000000     0.000000000000    -0.000349207290    15.994914619560
           H          0.000000000000    -0.925274422215     0.002771086551     1.007825032070
           H          0.000000000000     0.925274422215     0.002771086551     1.007825032070
3
-76.0222849614 2.90e-02
           O          0.000000000000     0.000000000000    -0.000745775639    15.994914619560
           H          0.000000000000    -0.924652648452     0.005918000297     1.007825032070
           H          0.000000000000     0.924652648452     0.005918000297     1.007825032070
3
-76.0236841716 2.73e-02
           O          0.000000000000     0.000000000000    -0.000745775639    15.994914619560
           H          0.000000000000    -0.924652648452     0.005918000297     1.007825032070
           H          0.000000000000     0.924652648452     0.005918000297     1.007825032070
3
-76.0257442263 1.73e-02
           O          0.000000000000     0.000000000000    -0.049470488117    15.994914619560
           H          0.000000000000    -1.079654714812     0.392566273136     1.007825032070
           H          0.000000000000     1.079654714812     0.392566273136     1.007825032070
3
-76.0270035970 2.99e-03
           O          0.000000000000     0.000000000000    -0.049470488117    15.994914619560
           H          0.000000000000    -1.079654714812     0.392566273136     1.007825032070
           H          0.000000000000     1.079654714812     0.392566273136     1.007825032070
3
-76.0270320075 3.13e-04
           O          0.000000000000     0.000000000000    -0.094372910723    15.994914619560
           H          0.000000000000    -0.698114469041     0.748883288952     1.007825032070
           H          0.000000000000     0.698114469041     0.748883288952     1.007825032070
3
-76.0270327801 2.91e-05
           O          0.000000000000     0.000000000000    -0.094372910723    15.994914619560
           H          0.000000000000    -0.698114469041     0.748883288952     1.007825032070
           H          0.000000000000     0.698114469041     0.748883288952     1.007825032070
3

           O          0.000000000000     0.000000000000    -0.059016065414    15.994914619560
           H          0.000000000000    -0.820264288262     0.468313892510     1.007825032070
           H          0.000000000000     0.820264288262     0.468313892510     1.007825032070
3

           O          0.000000000000     0.000000000000    -0.059016065414    15.994914619560
           H          0.000000000000    -0.820264288262     0.468313892510     1.007825032070
           H          0.000000000000     0.820264288262     0.468313892510     1.007825032070
3

           O          0.000000000000     0.000000000000    -0.068847528665    15.994914619560
           H          0.000000000000    -0.690246021917     0.546330120666     1.007825032070
           H          0.000000000000     0.690246021917     0.546330120666     1.007825032070
3

           O          0.000000000000     0.000000000000    -0.068847528665    15.994914619560
           H          0.000000000000    -0.690246021917     0.546330120666     1.007825032070
           H          0.000000000000     0.690246021917     0.546330120666     1.007825032070
3

           O          0.000000000000     0.000000000000    -0.063111488904    15.994914619560
           H          0.000000000000    -0.783209758543     0.500812563895     1.007825032070
           H          0.000000000000     0.783209758543     0.500812563895     1.007825032070
3

           O          0.000000000000     0.000000000000    -0.063111488904    15.994914619560
           H          0.000000000000    -0.783209758543     0.500812563895     1.007825032070
           H          0.000000000000     0.783209758543     0.500812563895     1.007825032070
3

           O          0.000000000000     0.000000000000    -0.064715667606    15.994914619560
           H          0.000000000000    -0.744778537066     0.513542303957     1.007825032070
           H          0.000000000000     0.744778537066     0.513542303957     1.007825032070
3

           O          0.000000000000     0.000000000000    -0.064715667606    15.994914619560
           H          0.000000000000    -0.744778537066     0.513542303957     1.007825032070
           H          0.000000000000     0.744778537066     0.513542303957     1.007825032070
3

           O          0.000000000000     0.000000000000    -0.064881096618    15.994914619560
           H          0.000000000000    -0.748329174023     0.514855043187     1.007825032070
           H          0.000000000000     0.748329174023     0.514855043187     1.007825032070
3

           O          0.000000000000     0.000000000000    -0.064881096618    15.994914619560
           H          0.000000000000    -0.748329174023     0.514855043187     1.007825032070
           H          0.000000000000     0.748329174023     0.514855043187     1.007825032070
3

           O          0.000000000000     0.000000000000    -0.064739369493    15.994914619560
           H          0.000000000000    -0.748841399844     0.513730387029     1.007825032070
           H          0.000000000000     0.748841399844     0.513730387029     1.007825032070
3

           O          0.000000000000     0.000000000000    -0.064739369493    15.994914619560
           H          0.000000000000    -0.748841399844     0.513730387029     1.007825032070
           H          0.000000000000     0.748841399844     0.513730387029     1.007825032070
