       3
 i =        1, E =       -17.1660539742
  O         0.0000000005        0.0835823548        0.0000000016
  H         0.8165448301        0.6576687262        0.0000000002
  H        -0.8165448296        0.6576687258        0.0000000003
       3
 i =        2, E =       -17.1677388006
  O         0.0000000010        0.0602369447        0.0000000033
  H         0.7713957740        0.6670903166        0.0000000004
  H        -0.7713957730        0.6670903158        0.0000000005
       3
 i =        3, E =       -17.1677647793
  O         0.0000000016        0.0612449731        0.0000000065
  H         0.7701212061        0.6649383034        0.0000000006
  H        -0.7701212043        0.6649383021        0.0000000008
       3
 i =        4, E =       -17.1677688384
  O         0.0000000025        0.0610051670        0.0000000141
  H         0.7703611315        0.6626140568        0.0000000010
  H        -0.7703611286        0.6626140547        0.0000000013
       3
 i =        5, E =       -17.1677701877
  O         0.0000000036        0.0597644106        0.0000000286
  H         0.7705358785        0.6608149739        0.0000000015
  H        -0.7705358743        0.6608149708        0.0000000018
       3
 i =        6, E =       -17.1677717757
  O         0.0000000069        0.0565386490        0.0000000920
  H         0.7708231809        0.6571864798        0.0000000028
  H        -0.7708231726        0.6571864737        0.0000000033
       3
 i =        7, E =       -17.1677719057
  O         0.0000000088        0.0557750059        0.0000001699
  H         0.7708525135        0.6566165527        0.0000000037
  H        -0.7708525030        0.6566165448        0.0000000042
       3
 i =        8, E =       -17.1677719057
  O         0.0000000088        0.0557750059        0.0000001699
  H         0.7708525135        0.6566165527        0.0000000037
  H        -0.7708525030        0.6566165448        0.0000000042
